30698
  -OEChem-06181713293D

 87 93  0     1  0  0  0  0  0999 V2000
   -4.3110    0.7824    1.2677 O   0  0  0  0  0  0  0  0  0  0  0  0
    4.2613    0.0566   -0.2226 O   0  0  0  0  0  0  0  0  0  0  0  0
   -8.1050    1.3081    1.1884 O   0  0  0  0  0  0  0  0  0  0  0  0
    5.5267    1.6508   -1.3970 O   0  0  0  0  0  0  0  0  0  0  0  0
    6.2319   -1.8217   -0.4052 O   0  0  0  0  0  0  0  0  0  0  0  0
    6.8962   -0.3894    1.3258 O   0  0  0  0  0  0  0  0  0  0  0  0
  -10.1269    0.4498    1.7739 O   0  0  0  0  0  0  0  0  0  0  0  0
    8.0804    2.1614    1.1960 O   0  0  0  0  0  0  0  0  0  0  0  0
   -3.5806    0.4102    0.0892 C   0  0  2  0  0  0  0  0  0  0  0  0
   -4.3295   -0.7184   -0.6716 C   0  0  1  0  0  0  0  0  0  0  0  0
   -2.1360    0.0317    0.5161 C   0  0  1  0  0  0  0  0  0  0  0  0
   -1.2855   -0.5674   -0.6379 C   0  0  1  0  0  0  0  0  0  0  0  0
    0.1787   -0.9571   -0.1940 C   0  0  2  0  0  0  0  0  0  0  0  0
   -5.5327    0.0351   -1.3221 C   0  0  2  0  0  0  0  0  0  0  0  0
   -3.4289   -1.2920   -1.8002 C   0  0  0  0  0  0  0  0  0  0  0  0
   -2.0459   -1.7234   -1.3151 C   0  0  0  0  0  0  0  0  0  0  0  0
   -3.6770    1.6122   -0.8683 C   0  0  0  0  0  0  0  0  0  0  0  0
   -1.4033    1.2254    1.1597 C   0  0  0  0  0  0  0  0  0  0  0  0
   -4.9693    1.4241   -1.6759 C   0  0  0  0  0  0  0  0  0  0  0  0
    0.8084    0.2195    0.5615 C   0  0  0  0  0  0  0  0  0  0  0  0
   -4.7821   -1.8790    0.2377 C   0  0  0  0  0  0  0  0  0  0  0  0
   -0.0193    0.8331    1.6619 C   0  0  0  0  0  0  0  0  0  0  0  0
    1.0109   -1.2981   -1.4709 C   0  0  0  0  0  0  0  0  0  0  0  0
    0.1945   -2.1901    0.7411 C   0  0  0  0  0  0  0  0  0  0  0  0
   -6.7617    0.1761   -0.4705 C   0  0  0  0  0  0  0  0  0  0  0  0
    2.5154   -1.2502   -1.2301 C   0  0  0  0  0  0  0  0  0  0  0  0
    2.0326    0.7038    0.2811 C   0  0  0  0  0  0  0  0  0  0  0  0
    2.9450    0.1369   -0.7619 C   0  0  1  0  0  0  0  0  0  0  0  0
   -7.7951   -0.8199   -0.5842 C   0  0  0  0  0  0  0  0  0  0  0  0
   -6.9571    1.1771    0.3940 C   0  0  0  0  0  0  0  0  0  0  0  0
    5.2476    0.2598   -1.2276 C   0  0  1  0  0  0  0  0  0  0  0  0
   -8.9086   -0.7406    0.1508 C   0  0  0  0  0  0  0  0  0  0  0  0
    6.5383   -0.5256   -0.9387 C   0  0  1  0  0  0  0  0  0  0  0  0
   -9.1048    0.3754    1.0995 C   0  0  0  0  0  0  0  0  0  0  0  0
    7.4394    0.1108    0.1007 C   0  0  1  0  0  0  0  0  0  0  0  0
    7.4850    1.6305    0.0201 C   0  0  1  0  0  0  0  0  0  0  0  0
    6.1070    2.2431   -0.2281 C   0  0  1  0  0  0  0  0  0  0  0  0
    6.5346   -1.7440    1.0012 C   0  0  0  0  0  0  0  0  0  0  0  0
    6.1946    3.7467   -0.4710 C   0  0  0  0  0  0  0  0  0  0  0  0
    7.7061   -2.6848    1.2957 C   0  0  0  0  0  0  0  0  0  0  0  0
    5.3258   -2.1588    1.8311 C   0  0  0  0  0  0  0  0  0  0  0  0
   -2.2310   -0.7320    1.3001 H   0  0  0  0  0  0  0  0  0  0  0  0
   -1.1751    0.2226   -1.3951 H   0  0  0  0  0  0  0  0  0  0  0  0
   -5.8269   -0.4566   -2.2602 H   0  0  0  0  0  0  0  0  0  0  0  0
   -3.2916   -0.5572   -2.6032 H   0  0  0  0  0  0  0  0  0  0  0  0
   -3.9263   -2.1504   -2.2703 H   0  0  0  0  0  0  0  0  0  0  0  0
   -2.1475   -2.5729   -0.6327 H   0  0  0  0  0  0  0  0  0  0  0  0
   -1.4868   -2.0881   -2.1835 H   0  0  0  0  0  0  0  0  0  0  0  0
   -2.8332    1.6626   -1.5635 H   0  0  0  0  0  0  0  0  0  0  0  0
   -3.7125    2.5637   -0.3254 H   0  0  0  0  0  0  0  0  0  0  0  0
   -1.9833    1.6171    2.0034 H   0  0  0  0  0  0  0  0  0  0  0  0
   -1.3030    2.0444    0.4365 H   0  0  0  0  0  0  0  0  0  0  0  0
   -5.6600    2.2643   -1.5507 H   0  0  0  0  0  0  0  0  0  0  0  0
   -4.7072    1.4384   -2.7427 H   0  0  0  0  0  0  0  0  0  0  0  0
   -5.4312   -1.5533    1.0559 H   0  0  0  0  0  0  0  0  0  0  0  0
   -5.3267   -2.6363   -0.3374 H   0  0  0  0  0  0  0  0  0  0  0  0
   -3.9292   -2.3783    0.7079 H   0  0  0  0  0  0  0  0  0  0  0  0
   -0.1125    0.1179    2.4879 H   0  0  0  0  0  0  0  0  0  0  0  0
    0.4685    1.7221    2.0801 H   0  0  0  0  0  0  0  0  0  0  0  0
    0.7713   -0.5903   -2.2762 H   0  0  0  0  0  0  0  0  0  0  0  0
    0.7484   -2.2939   -1.8478 H   0  0  0  0  0  0  0  0  0  0  0  0
   -0.4829   -2.0768    1.5929 H   0  0  0  0  0  0  0  0  0  0  0  0
   -0.0979   -3.1025    0.2107 H   0  0  0  0  0  0  0  0  0  0  0  0
    1.1946   -2.3684    1.1537 H   0  0  0  0  0  0  0  0  0  0  0  0
   -4.1940    0.0839    1.9331 H   0  0  0  0  0  0  0  0  0  0  0  0
    2.8150   -2.0125   -0.4999 H   0  0  0  0  0  0  0  0  0  0  0  0
    3.0425   -1.5131   -2.1549 H   0  0  0  0  0  0  0  0  0  0  0  0
    2.4082    1.5607    0.8359 H   0  0  0  0  0  0  0  0  0  0  0  0
    2.9202    0.8428   -1.6040 H   0  0  0  0  0  0  0  0  0  0  0  0
   -7.6609   -1.6434   -1.2776 H   0  0  0  0  0  0  0  0  0  0  0  0
   -6.3071    2.0149    0.5964 H   0  0  0  0  0  0  0  0  0  0  0  0
    4.8737   -0.1133   -2.1891 H   0  0  0  0  0  0  0  0  0  0  0  0
   -9.6908   -1.4865    0.0712 H   0  0  0  0  0  0  0  0  0  0  0  0
    7.0955   -0.6361   -1.8766 H   0  0  0  0  0  0  0  0  0  0  0  0
    8.4636   -0.2772    0.0302 H   0  0  0  0  0  0  0  0  0  0  0  0
    8.1305    1.8948   -0.8281 H   0  0  0  0  0  0  0  0  0  0  0  0
    5.4519    2.0886    0.6386 H   0  0  0  0  0  0  0  0  0  0  0  0
    6.6070    4.2723    0.3952 H   0  0  0  0  0  0  0  0  0  0  0  0
    6.8160    3.9677   -1.3460 H   0  0  0  0  0  0  0  0  0  0  0  0
    5.2000    4.1545   -0.6827 H   0  0  0  0  0  0  0  0  0  0  0  0
    7.4372   -3.7255    1.0848 H   0  0  0  0  0  0  0  0  0  0  0  0
    8.5736   -2.4525    0.6689 H   0  0  0  0  0  0  0  0  0  0  0  0
    8.0279   -2.6007    2.3390 H   0  0  0  0  0  0  0  0  0  0  0  0
    4.9695   -3.1537    1.5442 H   0  0  0  0  0  0  0  0  0  0  0  0
    5.5626   -2.1565    2.9006 H   0  0  0  0  0  0  0  0  0  0  0  0
    4.4910   -1.4659    1.6974 H   0  0  0  0  0  0  0  0  0  0  0  0
    8.9543    1.7472    1.2964 H   0  0  0  0  0  0  0  0  0  0  0  0
  1  9  1  0  0  0  0
  1 65  1  0  0  0  0
  2 28  1  0  0  0  0
  2 31  1  0  0  0  0
  3 30  1  0  0  0  0
  3 34  1  0  0  0  0
  4 31  1  0  0  0  0
  4 37  1  0  0  0  0
  5 33  1  0  0  0  0
  5 38  1  0  0  0  0
  6 35  1  0  0  0  0
  6 38  1  0  0  0  0
  7 34  2  0  0  0  0
  8 36  1  0  0  0  0
  8 87  1  0  0  0  0
  9 10  1  0  0  0  0
  9 11  1  0  0  0  0
  9 17  1  0  0  0  0
 10 14  1  0  0  0  0
 10 15  1  0  0  0  0
 10 21  1  0  0  0  0
 11 12  1  0  0  0  0
 11 18  1  0  0  0  0
 11 42  1  0  0  0  0
 12 13  1  0  0  0  0
 12 16  1  0  0  0  0
 12 43  1  0  0  0  0
 13 20  1  0  0  0  0
 13 23  1  0  0  0  0
 13 24  1  0  0  0  0
 14 19  1  0  0  0  0
 14 25  1  0  0  0  0
 14 44  1  0  0  0  0
 15 16  1  0  0  0  0
 15 45  1  0  0  0  0
 15 46  1  0  0  0  0
 16 47  1  0  0  0  0
 16 48  1  0  0  0  0
 17 19  1  0  0  0  0
 17 49  1  0  0  0  0
 17 50  1  0  0  0  0
 18 22  1  0  0  0  0
 18 51  1  0  0  0  0
 18 52  1  0  0  0  0
 19 53  1  0  0  0  0
 19 54  1  0  0  0  0
 20 22  1  0  0  0  0
 20 27  2  0  0  0  0
 21 55  1  0  0  0  0
 21 56  1  0  0  0  0
 21 57  1  0  0  0  0
 22 58  1  0  0  0  0
 22 59  1  0  0  0  0
 23 26  1  0  0  0  0
 23 60  1  0  0  0  0
 23 61  1  0  0  0  0
 24 62  1  0  0  0  0
 24 63  1  0  0  0  0
 24 64  1  0  0  0  0
 25 29  1  0  0  0  0
 25 30  2  0  0  0  0
 26 28  1  0  0  0  0
 26 66  1  0  0  0  0
 26 67  1  0  0  0  0
 27 28  1  0  0  0  0
 27 68  1  0  0  0  0
 28 69  1  0  0  0  0
 29 32  2  0  0  0  0
 29 70  1  0  0  0  0
 30 71  1  0  0  0  0
 31 33  1  0  0  0  0
 31 72  1  0  0  0  0
 32 34  1  0  0  0  0
 32 73  1  0  0  0  0
 33 35  1  0  0  0  0
 33 74  1  0  0  0  0
 35 36  1  0  0  0  0
 35 75  1  0  0  0  0
 36 37  1  0  0  0  0
 36 76  1  0  0  0  0
 37 39  1  0  0  0  0
 37 77  1  0  0  0  0
 38 40  1  0  0  0  0
 38 41  1  0  0  0  0
 39 78  1  0  0  0  0
 39 79  1  0  0  0  0
 39 80  1  0  0  0  0
 40 81  1  0  0  0  0
 40 82  1  0  0  0  0
 40 83  1  0  0  0  0
 41 84  1  0  0  0  0
 41 85  1  0  0  0  0
 41 86  1  0  0  0  0
M  END
> <PUBCHEM_COMPOUND_CID>
30698

> <PUBCHEM_CONFORMER_RMSD>
1

> <PUBCHEM_CONFORMER_DIVERSEORDER>
1
293
126
51
69
249
228
72
15
205
76
244
50
206
204
262
201
106
265
295
191
147
233
288
48
141
179
178
124
43
278
271
221
28
86
235
104
11
267
70
116
213
31
67
297
207
136
176
74
285
151
200
112
16
93
227
192
99
245
118
108
300
243
246
6
275
303
281
160
146
49
65
260
298
266
134
18
149
210
23
94
241
181
4
238
122
9
35
215
33
142
291
44
95
177
12
270
144
135
145
174
60
39
68
8
240
152
203
82
302
168
214
62
277
13
17
7
166
171
209
84
236
162
197
63
153
216
226
234
154
34
294
138
143
2
211
196
19
222
283
276
296
150
189
163
223
121
272
96
30
182
292
14
26
194
140
78
36
273
254
66
156
232
259
208
103
73
110
225
183
87
169
59
289
242
257
301
247
90
5
109
229
54
81
220
40
120
24
251
239
115
261
190
299
170
64
129
195
105
264
184
29
132
101
61
290
25
286
269
38
231
137
46
117
173
130
255
111
252
20
47
125
218
77
165
27
159
148
85
248
37
274
157
52
92
167
100
198
202
139
193
3
102
131
79
133
83
287
164
282
89
57
230
180
123
280
127
32
113
88
21
199
114
42
187
80
212
22
258
185
172
128
256
158
279
45
161
219
41
217
98
10
155
268
53
224
58
284
175
107
75
55
186
56
253
97
250
71
91
237
188
263
119

> <PUBCHEM_MMFF94_PARTIAL_CHARGES>
32
1 -0.68
13 0.14
14 0.14
2 -0.56
20 -0.28
22 0.14
25 -0.14
27 -0.29
28 0.42
29 -0.15
3 -0.23
30 -0.07
31 0.56
32 -0.14
33 0.28
34 0.71
35 0.28
36 0.28
37 0.28
38 0.56
4 -0.56
5 -0.56
6 -0.56
65 0.4
68 0.15
7 -0.57
70 0.15
71 0.15
73 0.15
8 -0.68
87 0.4
9 0.28

> <PUBCHEM_EFFECTIVE_ROTOR_COUNT>
6.4

> <PUBCHEM_PHARMACOPHORE_FEATURES>
17
1 1 acceptor
1 1 donor
1 2 acceptor
1 4 acceptor
1 5 acceptor
1 6 acceptor
1 7 acceptor
1 8 acceptor
1 8 donor
3 38 40 41 hydrophobe
5 5 6 33 35 38 rings
5 9 10 14 17 19 rings
6 11 12 13 18 20 22 rings
6 13 20 23 26 27 28 rings
6 3 25 29 30 32 34 rings
6 4 31 33 35 36 37 rings
6 9 10 11 12 15 16 rings

> <PUBCHEM_HEAVY_ATOM_COUNT>
41

> <PUBCHEM_ATOM_DEF_STEREO_COUNT>
7

> <PUBCHEM_ATOM_UDEF_STEREO_COUNT>
5

> <PUBCHEM_BOND_DEF_STEREO_COUNT>
0

> <PUBCHEM_BOND_UDEF_STEREO_COUNT>
0

> <PUBCHEM_ISOTOPIC_ATOM_COUNT>
0

> <PUBCHEM_COMPONENT_COUNT>
1

> <PUBCHEM_CACTVS_TAUTO_COUNT>
1

> <PUBCHEM_CONFORMER_ID>
000077EA00000001

> <PUBCHEM_MMFF94_ENERGY>
148.2894

> <PUBCHEM_FEATURE_SELFOVERLAP>
86.772

> <PUBCHEM_SHAPE_FINGERPRINT>
10 15 18411982472473998759
11135926 11 17845925244022772791
11315181 36 11527942375294111423
11534866 41 15936683793030782482
11719270 70 17989204828941917934
12089408 11 18272932722336583951
12838862 33 17274529941851478239
13782708 43 16009324196407497840
13811026 1 18410578391803753590
14040222 383 17775281716443710759
14118638 360 15792003446961117585
15082195 135 17203337745275171512
15131766 46 18046066231791899020
15183329 4 17775568658739013908
15198563 99 13326311267863200714
15301273 46 15068622677693261279
15392192 104 16443358593442300622
15461852 350 12468642725339509803
1577012 14 18343579672577832646
15840311 113 18411141338174371116
16087824 20 17274550824557952857
18608769 82 18341333375181827119
19611394 137 17241061997893092473
20156587 128 14620534306797082268
20511986 3 18270950346137784124
21781055 127 17275116011592839819
22149856 69 17131839716091427202
23559900 14 17632003268925799905
23569943 247 15576944362514504824
23576562 1 13470103221807170089
3044373 193 17749115508665745356
335352 9 17346596388159972709
3383291 50 15140966162446035401
3552219 110 18202008707607674177
3918712 181 17060051597382143776
4073 2 17969222412298470642
4093350 32 17749100063842178946
4098825 35 18260827081765544879
4149490 64 18260268529780390914
44280117 145 17844524621007468703
6081469 158 10879996843749766539
6523845 18 16515678970690519681

> <PUBCHEM_SHAPE_MULTIPOLES>
796.81
30.3
2.53
1.62
14.56
0.68
-0.07
4.83
-8.13
-5.73
-0.21
0.5
-0.19
-2.02

> <PUBCHEM_SHAPE_SELFOVERLAP>
1730.973

> <PUBCHEM_SHAPE_VOLUME>
429.6

> <PUBCHEM_COORDINATE_TYPE>
2
5
10

$$$$
